Circuit: * C:\users\joaoantoniocardoso\Desktop\Dropbox\IFSC\Documentos\2019-1\SCT2\sct2_projeto1\hardware\simulations\planta_equivalente_alimentacao_simples.asc

WARNING: Less than two connections to node NC_01.  This node is used by V§SIG1.
WARNING: Less than two connections to node VCC2.  This node is used by V2.
Direct Newton iteration failed to find .op point.  (Use ".option noopiter" to skip.)
Starting Gmin stepping
Gmin = 10
Gmin = 1.07374
Gmin = 0.115292
Gmin = 0.0123794
Gmin = 0.00132923
Gmin = 0.000142725
Gmin = 1.5325e-005
Gmin = 1.6455e-006
Gmin = 1.76685e-007
Gmin = 1.89714e-008
Gmin = 2.03704e-009
Gmin = 2.18725e-010
Gmin = 2.34854e-011
Gmin = 2.52173e-012
Gmin = 2.70769e-013
Gmin = 0
Gmin stepping succeeded in finding the operating point.


Date: Wed Apr 03 19:16:55 2019
Total elapsed time: 0.183 seconds.

tnom = 27
temp = 27
method = trap
totiter = 452
traniter = 0
tranpoints = 0
accept = 0
rejected = 0
matrix size = 106
fillins = 118
solver = Alternate
Matrix Compiler1:     572 opcodes
Matrix Compiler2: 12.17 KB object code size  3.1/3.5/[2.3]

